156391
  -OEChem-01102420123D

 31 32  0     1  0  0  0  0  0999 V2000
   -4.7130    0.3338    0.1739 O   0  0  0  0  0  0  0  0  0  0  0  0
    4.8189    1.2691   -0.1100 O   0  0  0  0  0  0  0  0  0  0  0  0
    3.3040    0.9346    1.5421 O   0  0  0  0  0  0  0  0  0  0  0  0
    3.0842   -0.3616   -0.5166 C   0  0  2  0  0  0  0  0  0  0  0  0
    1.6066   -0.4581   -0.3393 C   0  0  0  0  0  0  0  0  0  0  0  0
   -0.5819    0.6043   -0.3228 C   0  0  0  0  0  0  0  0  0  0  0  0
   -1.1761   -0.6404   -0.0060 C   0  0  0  0  0  0  0  0  0  0  0  0
    0.8111    0.6787   -0.4861 C   0  0  0  0  0  0  0  0  0  0  0  0
    1.0222   -1.6821   -0.0279 C   0  0  0  0  0  0  0  0  0  0  0  0
   -0.3600   -1.7742    0.1380 C   0  0  0  0  0  0  0  0  0  0  0  0
    3.8169   -1.7098   -0.3613 C   0  0  0  0  0  0  0  0  0  0  0  0
   -1.3979    1.7382   -0.4669 C   0  0  0  0  0  0  0  0  0  0  0  0
   -2.5689   -0.7147    0.1573 C   0  0  0  0  0  0  0  0  0  0  0  0
   -3.3645    0.4219    0.0104 C   0  0  0  0  0  0  0  0  0  0  0  0
    3.7244    0.6652    0.4243 C   0  0  0  0  0  0  0  0  0  0  0  0
   -2.7801    1.6460   -0.3010 C   0  0  0  0  0  0  0  0  0  0  0  0
   -5.2458   -0.9508    0.4920 C   0  0  0  0  0  0  0  0  0  0  0  0
    3.2558   -0.0089   -1.5434 H   0  0  0  0  0  0  0  0  0  0  0  0
    1.2742    1.6319   -0.7363 H   0  0  0  0  0  0  0  0  0  0  0  0
    1.5857   -2.5991    0.1027 H   0  0  0  0  0  0  0  0  0  0  0  0
   -0.7949   -2.7413    0.3821 H   0  0  0  0  0  0  0  0  0  0  0  0
    4.8912   -1.5711   -0.5331 H   0  0  0  0  0  0  0  0  0  0  0  0
    3.7167   -2.1180    0.6511 H   0  0  0  0  0  0  0  0  0  0  0  0
    3.4718   -2.4504   -1.0910 H   0  0  0  0  0  0  0  0  0  0  0  0
   -0.9628    2.7054   -0.7099 H   0  0  0  0  0  0  0  0  0  0  0  0
   -2.9802   -1.6902    0.4000 H   0  0  0  0  0  0  0  0  0  0  0  0
   -3.3951    2.5344   -0.4162 H   0  0  0  0  0  0  0  0  0  0  0  0
    5.2109    1.9248    0.5053 H   0  0  0  0  0  0  0  0  0  0  0  0
   -6.3309   -0.8358    0.5850 H   0  0  0  0  0  0  0  0  0  0  0  0
   -4.8799   -1.3106    1.4597 H   0  0  0  0  0  0  0  0  0  0  0  0
   -5.0700   -1.6711   -0.3141 H   0  0  0  0  0  0  0  0  0  0  0  0
  1 14  1  0  0  0  0
  1 17  1  0  0  0  0
  2 15  1  0  0  0  0
  2 28  1  0  0  0  0
  3 15  2  0  0  0  0
  4  5  1  0  0  0  0
  4 11  1  0  0  0  0
  4 15  1  0  0  0  0
  4 18  1  0  0  0  0
  5  8  2  0  0  0  0
  5  9  1  0  0  0  0
  6  7  2  0  0  0  0
  6  8  1  0  0  0  0
  6 12  1  0  0  0  0
  7 10  1  0  0  0  0
  7 13  1  0  0  0  0
  8 19  1  0  0  0  0
  9 10  2  0  0  0  0
  9 20  1  0  0  0  0
 10 21  1  0  0  0  0
 11 22  1  0  0  0  0
 11 23  1  0  0  0  0
 11 24  1  0  0  0  0
 12 16  2  0  0  0  0
 12 25  1  0  0  0  0
 13 14  2  0  0  0  0
 13 26  1  0  0  0  0
 14 16  1  0  0  0  0
 16 27  1  0  0  0  0
 17 29  1  0  0  0  0
 17 30  1  0  0  0  0
 17 31  1  0  0  0  0
M  END
> <PUBCHEM_COMPOUND_CID>
156391

> <PUBCHEM_CONFORMER_RMSD>
0.6

> <PUBCHEM_CONFORMER_DIVERSEORDER>
1
5
11
9
3
7
8
2
10
12
4
6

> <PUBCHEM_MMFF94_PARTIAL_CHARGES>
21
1 -0.36
10 -0.15
12 -0.15
13 -0.15
14 0.08
15 0.66
16 -0.15
17 0.28
19 0.15
2 -0.65
20 0.15
21 0.15
25 0.15
26 0.15
27 0.15
28 0.5
3 -0.57
4 0.2
5 -0.14
8 -0.15
9 -0.15

> <PUBCHEM_EFFECTIVE_ROTOR_COUNT>
3

> <PUBCHEM_PHARMACOPHORE_FEATURES>
7
1 1 acceptor
1 11 hydrophobe
1 2 acceptor
1 3 acceptor
3 2 3 15 anion
6 5 6 7 8 9 10 rings
6 6 7 12 13 14 16 rings

> <PUBCHEM_HEAVY_ATOM_COUNT>
17

> <PUBCHEM_ATOM_DEF_STEREO_COUNT>
1

> <PUBCHEM_ATOM_UDEF_STEREO_COUNT>
0

> <PUBCHEM_BOND_DEF_STEREO_COUNT>
0

> <PUBCHEM_BOND_UDEF_STEREO_COUNT>
0

> <PUBCHEM_ISOTOPIC_ATOM_COUNT>
0

> <PUBCHEM_COMPONENT_COUNT>
1

> <PUBCHEM_CACTVS_TAUTO_COUNT>
1

> <PUBCHEM_CONFORMER_ID>
000262E700000005

> <PUBCHEM_MMFF94_ENERGY>
56.9622

> <PUBCHEM_FEATURE_SELFOVERLAP>
35.606

> <PUBCHEM_SHAPE_FINGERPRINT>
10608611 8 18339077077872640636
11132069 177 18335139799863842391
11401426 45 18334010601828246461
11543360 7 16271915043245960789
11806522 49 18408042931465867359
12032990 46 18336553724419664799
12236239 1 17095521803443872012
12251169 10 18114179769871582612
12390115 104 18271260321478994305
12403259 226 18264766558908375004
12403259 415 18336827489798392340
12670546 56 15140956249086340797
13081056 2 18412547587169863454
13140716 1 18118969341248199097
13583140 156 16443331109455826765
13675066 3 18408606963482080279
13760787 19 14836123256293318765
13862211 1 18334574659725513635
14787075 74 18340764961365210897
15196674 1 18409168770916094165
15219456 202 18342173337107811630
15536298 74 18412827949766018158
16945 1 18260832609045713007
18186145 218 18201723903592776420
18785283 64 18055345001248523585
200 152 18343297064283409621
20510252 161 18412545371025144385
20528008 55 18341891891879380356
20645477 70 18059581243883589254
21267235 1 18336558118013336254
22854114 59 18413109459128684953
23402539 116 18334288795291966847
23557571 272 17677902232057023581
23559900 14 18410012096603682286
2748010 2 18118406142149875007
3286 77 18270401573275457294
34934 24 18335695019361551031
3545911 37 18413110576368782140
4047638 21 17775287170713916530
4072396 5 17968362482050915083
43471831 8 18041839506766774499
474229 33 18408323315178207703
5104073 3 18337675204884164873
5374978 207 18335417963331071218
53812653 166 18413666920198324056
6333272 397 18335139808448703564
69090 78 18273210902393163119
7364860 26 18124593085600783574
9709674 26 18337679628432077342

> <PUBCHEM_SHAPE_MULTIPOLES>
332.24
9.24
1.84
0.81
1.79
0.12
0.15
-0.34
1.35
-0.26
-0.07
-0.42
-0.12
0.77

> <PUBCHEM_SHAPE_SELFOVERLAP>
716.035

> <PUBCHEM_SHAPE_VOLUME>
184

> <PUBCHEM_COORDINATE_TYPE>
2
5
10

$$$$
