123619
  -OEChem-01102420143D

 39 41  0     0  0  0  0  0  0999 V2000
   -4.1777   -4.0708   -0.0382 Cl  0  0  0  0  0  0  0  0  0  0  0  0
    4.5706   -0.8165   -0.0017 S   0  0  0  0  0  0  0  0  0  0  0  0
    5.0560   -1.3809    1.2495 O   0  0  0  0  0  0  0  0  0  0  0  0
    5.0757   -1.3265   -1.2690 O   0  0  0  0  0  0  0  0  0  0  0  0
   -3.5720   -0.1341    0.0148 N   0  0  0  0  0  0  0  0  0  0  0  0
   -0.9482    3.2042   -1.1997 N   0  0  0  0  0  0  0  0  0  0  0  0
    0.0439   -1.1058   -0.0017 C   0  0  0  0  0  0  0  0  0  0  0  0
   -1.4000   -1.1988   -0.0018 C   0  0  0  0  0  0  0  0  0  0  0  0
    2.8279   -0.9279   -0.0015 C   0  0  0  0  0  0  0  0  0  0  0  0
   -2.2211   -0.0819    0.0142 C   0  0  0  0  0  0  0  0  0  0  0  0
    0.7387   -1.0447   -1.2095 C   0  0  0  0  0  0  0  0  0  0  0  0
    0.7409   -1.0781    1.2062 C   0  0  0  0  0  0  0  0  0  0  0  0
    2.1308   -0.9558   -1.2094 C   0  0  0  0  0  0  0  0  0  0  0  0
    2.1330   -0.9891    1.2063 C   0  0  0  0  0  0  0  0  0  0  0  0
   -1.6954    1.2670    0.0321 C   0  0  0  0  0  0  0  0  0  0  0  0
   -2.0074   -2.4504   -0.0181 C   0  0  0  0  0  0  0  0  0  0  0  0
    4.9010    0.9309    0.0222 C   0  0  0  0  0  0  0  0  0  0  0  0
   -1.4356    1.9149    1.2323 C   0  0  0  0  0  0  0  0  0  0  0  0
   -3.3947   -2.5450   -0.0181 C   0  0  0  0  0  0  0  0  0  0  0  0
   -1.4383    1.9454   -1.1459 C   0  0  0  0  0  0  0  0  0  0  0  0
   -4.1251   -1.3677   -0.0015 C   0  0  0  0  0  0  0  0  0  0  0  0
   -0.9307    3.2105    1.2179 C   0  0  0  0  0  0  0  0  0  0  0  0
   -0.7065    3.8055   -0.0131 C   0  0  0  0  0  0  0  0  0  0  0  0
   -0.1660    5.1955   -0.0661 C   0  0  0  0  0  0  0  0  0  0  0  0
    0.2107   -1.0638   -2.1600 H   0  0  0  0  0  0  0  0  0  0  0  0
    0.2144   -1.1235    2.1567 H   0  0  0  0  0  0  0  0  0  0  0  0
    2.6515   -0.9026   -2.1614 H   0  0  0  0  0  0  0  0  0  0  0  0
    2.6545   -0.9616    2.1589 H   0  0  0  0  0  0  0  0  0  0  0  0
   -1.4023   -3.3549   -0.0310 H   0  0  0  0  0  0  0  0  0  0  0  0
    4.4655    1.3622    0.9255 H   0  0  0  0  0  0  0  0  0  0  0  0
    5.9840    1.0710    0.0277 H   0  0  0  0  0  0  0  0  0  0  0  0
    4.4710    1.3863   -0.8719 H   0  0  0  0  0  0  0  0  0  0  0  0
   -1.6206    1.4264    2.1856 H   0  0  0  0  0  0  0  0  0  0  0  0
   -1.6212    1.4927   -2.1162 H   0  0  0  0  0  0  0  0  0  0  0  0
   -5.2109   -1.3742   -0.0006 H   0  0  0  0  0  0  0  0  0  0  0  0
   -0.7228    3.7291    2.1477 H   0  0  0  0  0  0  0  0  0  0  0  0
   -0.0415    5.5301   -1.1012 H   0  0  0  0  0  0  0  0  0  0  0  0
   -0.8501    5.8892    0.4328 H   0  0  0  0  0  0  0  0  0  0  0  0
    0.8119    5.2426    0.4235 H   0  0  0  0  0  0  0  0  0  0  0  0
  1 19  1  0  0  0  0
  2  3  2  0  0  0  0
  2  4  2  0  0  0  0
  2  9  1  0  0  0  0
  2 17  1  0  0  0  0
  5 10  1  0  0  0  0
  5 21  2  0  0  0  0
  6 20  1  0  0  0  0
  6 23  2  0  0  0  0
  7  8  1  0  0  0  0
  7 11  2  0  0  0  0
  7 12  1  0  0  0  0
  8 10  2  0  0  0  0
  8 16  1  0  0  0  0
  9 13  2  0  0  0  0
  9 14  1  0  0  0  0
 10 15  1  0  0  0  0
 11 13  1  0  0  0  0
 11 25  1  0  0  0  0
 12 14  2  0  0  0  0
 12 26  1  0  0  0  0
 13 27  1  0  0  0  0
 14 28  1  0  0  0  0
 15 18  1  0  0  0  0
 15 20  2  0  0  0  0
 16 19  2  0  0  0  0
 16 29  1  0  0  0  0
 17 30  1  0  0  0  0
 17 31  1  0  0  0  0
 17 32  1  0  0  0  0
 18 22  2  0  0  0  0
 18 33  1  0  0  0  0
 19 21  1  0  0  0  0
 20 34  1  0  0  0  0
 21 35  1  0  0  0  0
 22 23  1  0  0  0  0
 22 36  1  0  0  0  0
 23 24  1  0  0  0  0
 24 37  1  0  0  0  0
 24 38  1  0  0  0  0
 24 39  1  0  0  0  0
M  END
> <PUBCHEM_COMPOUND_CID>
123619

> <PUBCHEM_CONFORMER_RMSD>
0.6

> <PUBCHEM_CONFORMER_DIVERSEORDER>
2
4
3
1

> <PUBCHEM_MMFF94_PARTIAL_CHARGES>
30
1 -0.18
10 0.31
11 -0.15
12 -0.15
13 -0.15
14 -0.15
16 -0.15
17 0.11
18 -0.15
19 0.18
2 1.2
20 0.16
21 0.16
22 -0.15
23 0.17
24 0.14
25 0.15
26 0.15
27 0.15
28 0.15
29 0.15
3 -0.65
33 0.15
34 0.15
35 0.15
36 0.15
4 -0.65
5 -0.62
6 -0.62
9 -0.01

> <PUBCHEM_EFFECTIVE_ROTOR_COUNT>
3

> <PUBCHEM_PHARMACOPHORE_FEATURES>
7
1 3 acceptor
1 4 acceptor
1 5 acceptor
1 6 acceptor
6 5 8 10 16 19 21 rings
6 6 15 18 20 22 23 rings
6 7 9 11 12 13 14 rings

> <PUBCHEM_HEAVY_ATOM_COUNT>
24

> <PUBCHEM_ATOM_DEF_STEREO_COUNT>
0

> <PUBCHEM_ATOM_UDEF_STEREO_COUNT>
0

> <PUBCHEM_BOND_DEF_STEREO_COUNT>
0

> <PUBCHEM_BOND_UDEF_STEREO_COUNT>
0

> <PUBCHEM_ISOTOPIC_ATOM_COUNT>
0

> <PUBCHEM_COMPONENT_COUNT>
1

> <PUBCHEM_CACTVS_TAUTO_COUNT>
1

> <PUBCHEM_CONFORMER_ID>
0001E2E300000002

> <PUBCHEM_MMFF94_ENERGY>
67.857

> <PUBCHEM_FEATURE_SELFOVERLAP>
35.541

> <PUBCHEM_SHAPE_FINGERPRINT>
10050765 1 17978228589683999463
10165383 225 17046305223195586061
10670039 82 18337688485825669748
10937287 8 17474387972410963828
1100329 8 18410301337139726993
11045515 52 18261954145508362909
11477941 20 18342741836650038868
11488393 25 17471303219545627643
11578080 2 17389630263458121167
11582403 64 15941462072306147221
11640471 11 17534627006071234296
11833330 49 18411140233724242931
11963148 33 16610535238858060863
12107183 9 17469311540664124290
12156800 1 15837665137780149904
12173636 292 17906734700431886861
12236239 1 17748543749376326723
12403259 226 18272652346681720474
12788726 201 18260827042858047923
13140716 1 18411982489917469067
13149001 5 18120342533088430791
133893 2 17903933493228979427
13540713 4 17755005738944305327
13540713 5 17769387351019745683
13583140 156 17914870099252363738
138480 1 15456494804737779336
13965767 371 16960985294386984052
14081887 123 18338510842327000146
14347332 77 18338796698303092038
14713325 29 18199477580005149774
14787075 74 17970627609069050322
14790565 3 18052261696188546225
14910302 57 18058742290652219150
14955137 171 18265356034880704987
15439362 3 17760640765662922333
15961568 22 18339081618344493812
167882 2 17689434206214408869
17980427 23 17917441973003005975
1813 80 18198916987830817199
19315092 285 16953060311174125506
19611394 137 17611474416958856810
20510252 161 18339359639449534411
20600515 1 18272102595141486373
20905425 154 18123759909363631765
21033650 10 18046934618665918686
21304303 282 17760615128438650109
22182937 141 18055919788368864168
22907989 373 18265040341245191973
22956985 138 17613991219895674322
2297311 6 18341624723676739862
23352939 185 18200882901493110560
23366157 5 17829610918043769183
23402539 116 18412539925085961759
23419403 2 17829018225241246855
23557571 272 18271814483965796798
23559900 14 18200315395155147886
23845131 108 17547587976605594905
3178227 256 18335999610358794451
350125 39 17546738054032394675
4409770 3 18190164716617854183
469060 322 18339093630502461891
621550 5 17988931101753607482
6442390 28 17766578849880948193
7364860 26 17837212945749094827
7399639 24 18130783491142667718
7808743 9 18122631544230307736
81228 2 18269009613077138507
9981440 41 17688018713579195425

> <PUBCHEM_SHAPE_MULTIPOLES>
477.93
8.41
5.46
1.19
7.93
7.86
0.02
-9.44
-0.03
-3.6
-0.08
0.61
0.16
-0.05

> <PUBCHEM_SHAPE_SELFOVERLAP>
1024.671

> <PUBCHEM_SHAPE_VOLUME>
267.8

> <PUBCHEM_COORDINATE_TYPE>
2
5
10

$$$$
