54677470
  -OEChem-01102420193D

 36 38  0     1  0  0  0  0  0999 V2000
    1.6646   -1.7255    0.2514 S   0  0  0  0  0  0  0  0  0  0  0  0
   -4.2227   -1.3172    0.3173 S   0  0  0  0  0  0  0  0  0  0  0  0
    1.2486   -1.7611    1.6405 O   0  0  0  0  0  0  0  0  0  0  0  0
    1.9997   -2.9424   -0.4623 O   0  0  0  0  0  0  0  0  0  0  0  0
    1.3504    2.5564    0.6493 O   0  0  0  0  0  0  0  0  0  0  0  0
   -1.2364    2.2242   -0.4463 O   0  0  0  0  0  0  0  0  0  0  0  0
    0.5322   -0.8103   -0.6777 N   0  0  1  0  0  0  0  0  0  0  0  0
   -1.9500    0.0217   -0.0150 N   0  0  0  0  0  0  0  0  0  0  0  0
   -4.0843    1.2205   -0.1554 N   0  0  0  0  0  0  0  0  0  0  0  0
    3.0559   -0.6545    0.1840 C   0  0  0  0  0  0  0  0  0  0  0  0
    2.8098    0.7233    0.1537 C   0  0  0  0  0  0  0  0  0  0  0  0
    0.3517    0.5364   -0.1953 C   0  0  0  0  0  0  0  0  0  0  0  0
    1.4255    1.2536    0.1932 C   0  0  0  0  0  0  0  0  0  0  0  0
    4.3418   -1.1909    0.1427 C   0  0  0  0  0  0  0  0  0  0  0  0
    0.6282   -0.9339   -2.1615 C   0  0  0  0  0  0  0  0  0  0  0  0
    3.9233    1.5737    0.0965 C   0  0  0  0  0  0  0  0  0  0  0  0
   -1.0269    1.0327   -0.2353 C   0  0  0  0  0  0  0  0  0  0  0  0
    5.4293   -0.3255    0.0819 C   0  0  0  0  0  0  0  0  0  0  0  0
    5.2217    1.0530    0.0598 C   0  0  0  0  0  0  0  0  0  0  0  0
   -3.3612    0.1362    0.0167 C   0  0  0  0  0  0  0  0  0  0  0  0
   -5.6921   -0.4389    0.2132 C   0  0  0  0  0  0  0  0  0  0  0  0
   -5.4203    0.8888   -0.0427 C   0  0  0  0  0  0  0  0  0  0  0  0
   -6.9887   -1.1205    0.3915 C   0  0  0  0  0  0  0  0  0  0  0  0
    4.5113   -2.2627    0.1651 H   0  0  0  0  0  0  0  0  0  0  0  0
   -0.1844   -0.3802   -2.6433 H   0  0  0  0  0  0  0  0  0  0  0  0
    1.5830   -0.5449   -2.5271 H   0  0  0  0  0  0  0  0  0  0  0  0
    0.5221   -1.9824   -2.4546 H   0  0  0  0  0  0  0  0  0  0  0  0
    3.8038    2.6544    0.0686 H   0  0  0  0  0  0  0  0  0  0  0  0
    6.4397   -0.7227    0.0525 H   0  0  0  0  0  0  0  0  0  0  0  0
    6.0722    1.7274    0.0118 H   0  0  0  0  0  0  0  0  0  0  0  0
   -1.6119   -0.9242    0.1472 H   0  0  0  0  0  0  0  0  0  0  0  0
    0.4185    2.8314    0.6574 H   0  0  0  0  0  0  0  0  0  0  0  0
   -6.1645    1.6658   -0.1570 H   0  0  0  0  0  0  0  0  0  0  0  0
   -7.1271   -1.9032   -0.3617 H   0  0  0  0  0  0  0  0  0  0  0  0
   -7.0578   -1.5783    1.3839 H   0  0  0  0  0  0  0  0  0  0  0  0
   -7.8205   -0.4149    0.2932 H   0  0  0  0  0  0  0  0  0  0  0  0
  1  3  2  0  0  0  0
  1  4  2  0  0  0  0
  1  7  1  0  0  0  0
  1 10  1  0  0  0  0
  2 20  1  0  0  0  0
  2 21  1  0  0  0  0
  5 13  1  0  0  0  0
  5 32  1  0  0  0  0
  6 17  2  0  0  0  0
  7 12  1  0  0  0  0
  7 15  1  0  0  0  0
  8 17  1  0  0  0  0
  8 20  1  0  0  0  0
  8 31  1  0  0  0  0
  9 20  2  0  0  0  0
  9 22  1  0  0  0  0
 10 11  1  0  0  0  0
 10 14  2  0  0  0  0
 11 13  1  0  0  0  0
 11 16  2  0  0  0  0
 12 13  2  0  0  0  0
 12 17  1  0  0  0  0
 14 18  1  0  0  0  0
 14 24  1  0  0  0  0
 15 25  1  0  0  0  0
 15 26  1  0  0  0  0
 15 27  1  0  0  0  0
 16 19  1  0  0  0  0
 16 28  1  0  0  0  0
 18 19  2  0  0  0  0
 18 29  1  0  0  0  0
 19 30  1  0  0  0  0
 21 22  2  0  0  0  0
 21 23  1  0  0  0  0
 22 33  1  0  0  0  0
 23 34  1  0  0  0  0
 23 35  1  0  0  0  0
 23 36  1  0  0  0  0
M  END
> <PUBCHEM_COMPOUND_CID>
54677470

> <PUBCHEM_CONFORMER_RMSD>
0.6

> <PUBCHEM_CONFORMER_DIVERSEORDER>
2
10
20
24
4
8
14
23
13
30
1
28
16
26
18
25
9
21
12
7
19
6
5
27
3
17
22
29
15
11

> <PUBCHEM_MMFF94_PARTIAL_CHARGES>
30
1 1.45
10 -0.01
11 0.03
12 0.21
13 0.05
14 -0.15
15 0.36
16 -0.15
17 0.62
18 -0.15
19 -0.15
2 -0.08
20 0.44
21 -0.14
22 0.08
23 0.18
24 0.15
28 0.15
29 0.15
3 -0.65
30 0.15
31 0.37
32 0.45
33 0.15
4 -0.65
5 -0.53
6 -0.57
7 -0.68
8 -0.49
9 -0.57

> <PUBCHEM_EFFECTIVE_ROTOR_COUNT>
3.2

> <PUBCHEM_PHARMACOPHORE_FEATURES>
8
1 3 acceptor
1 4 acceptor
1 5 donor
1 6 acceptor
1 8 donor
5 2 9 20 21 22 rings
6 1 7 10 11 12 13 rings
6 10 11 14 16 18 19 rings

> <PUBCHEM_HEAVY_ATOM_COUNT>
23

> <PUBCHEM_ATOM_DEF_STEREO_COUNT>
0

> <PUBCHEM_ATOM_UDEF_STEREO_COUNT>
0

> <PUBCHEM_BOND_DEF_STEREO_COUNT>
0

> <PUBCHEM_BOND_UDEF_STEREO_COUNT>
0

> <PUBCHEM_ISOTOPIC_ATOM_COUNT>
0

> <PUBCHEM_COMPONENT_COUNT>
1

> <PUBCHEM_CACTVS_TAUTO_COUNT>
8

> <PUBCHEM_CONFORMER_ID>
03424FDE00000002

> <PUBCHEM_MMFF94_ENERGY>
58.5577

> <PUBCHEM_FEATURE_SELFOVERLAP>
40.632

> <PUBCHEM_SHAPE_FINGERPRINT>
10 15 18337100276932086768
11045977 3 18334579078655744938
11421498 54 16845302596178222635
11488393 25 17773333244147208950
11578080 2 17097478800664940636
11963148 33 18335414699030560003
12011746 2 18335424569059460962
12107183 9 17693100656702181585
12236239 1 17918275350591476457
12516196 113 18413670227576590001
12592029 89 18272652312364316438
12596602 18 17489309719905190099
13402501 40 18261112997759857243
13464513 79 18412825797923884888
13685833 64 18333735741169802027
14341114 176 18412267246370545489
14787075 74 18334295379249835234
14790565 3 17977668933231762756
14955137 171 17917997187203485948
15196674 1 18409448085281544859
15927050 60 17622444265474723228
1601671 61 18060418014870243252
16945 1 18125444108153848962
17349148 13 15864077537514573365
17492 89 18122059806615647218
1813 80 17022624156731343141
200 152 18272650143184156113
20261772 1 18059850688155360446
20645477 70 18409729534467476066
21197605 99 18267590298079572395
21267235 1 18341335509722258430
21421861 104 17897441692588528809
21521721 280 18201441440842465312
21623969 137 18409737274468275979
22079108 93 18335414703698800256
22224240 67 18272646895830099706
23402539 116 18040429993047179085
23557571 272 17458341901699503085
23559900 14 18337102471523250577
239999 70 18341618100989780006
2871803 45 18260265222512329232
335352 9 18410576215299729262
33824 294 18408603647503759146
350125 39 18410291428566207644
3545911 37 18410575102523391209
4073 2 17967819400378965131
4214541 1 18409729543880557857
42630746 31 18343867710385896990
4340502 62 18113614608141690970
465052 167 18341898506092099582
5104073 3 18340763732830660609
5283173 99 17968649403294674949
54040823 5 18272653424370358578
542803 24 17275387599480845163
5486654 2 18334582373117193870
59755656 215 18410862027719064510
8272917 22 18411702054312281438
9999458 23 18187081801856484796

> <PUBCHEM_SHAPE_MULTIPOLES>
442.61
13.63
2.26
0.98
16.6
0.17
-0.32
1.17
1.94
-1.1
0.11
-0.22
0.36
0.41

> <PUBCHEM_SHAPE_SELFOVERLAP>
933.686

> <PUBCHEM_SHAPE_VOLUME>
249.9

> <PUBCHEM_COORDINATE_TYPE>
2
5
10

$$$$
