5509
  -OEChem-01102420223D

 34 35  0     0  0  0  0  0  0999 V2000
    0.7485    2.3778   -0.4371 O   0  0  0  0  0  0  0  0  0  0  0  0
   -5.7765   -0.8666   -0.7376 O   0  0  0  0  0  0  0  0  0  0  0  0
   -3.6457   -1.5169   -1.1789 O   0  0  0  0  0  0  0  0  0  0  0  0
   -1.6799    0.8458    0.0772 N   0  0  0  0  0  0  0  0  0  0  0  0
   -2.5625    0.0597    0.7710 C   0  0  0  0  0  0  0  0  0  0  0  0
   -0.4393    0.5456    0.4984 C   0  0  0  0  0  0  0  0  0  0  0  0
   -1.8354   -0.7334    1.6309 C   0  0  0  0  0  0  0  0  0  0  0  0
   -0.4675   -0.4126    1.4477 C   0  0  0  0  0  0  0  0  0  0  0  0
   -4.0224    0.1304    0.5547 C   0  0  0  0  0  0  0  0  0  0  0  0
    0.7730    1.2024   -0.0353 C   0  0  0  0  0  0  0  0  0  0  0  0
   -2.0422    1.8197   -0.9314 C   0  0  0  0  0  0  0  0  0  0  0  0
    2.0453    0.4999   -0.0924 C   0  0  0  0  0  0  0  0  0  0  0  0
    2.0714   -0.8850   -0.2571 C   0  0  0  0  0  0  0  0  0  0  0  0
    3.2397    1.2115    0.0188 C   0  0  0  0  0  0  0  0  0  0  0  0
    4.4864   -0.8466   -0.1989 C   0  0  0  0  0  0  0  0  0  0  0  0
    3.2919   -1.5583   -0.3101 C   0  0  0  0  0  0  0  0  0  0  0  0
    4.4602    0.5384   -0.0345 C   0  0  0  0  0  0  0  0  0  0  0  0
   -4.4364   -0.8457   -0.5276 C   0  0  0  0  0  0  0  0  0  0  0  0
    5.7914   -1.5661   -0.2578 C   0  0  0  0  0  0  0  0  0  0  0  0
   -2.2433   -1.4607    2.3192 H   0  0  0  0  0  0  0  0  0  0  0  0
    0.3624   -0.8448    1.9890 H   0  0  0  0  0  0  0  0  0  0  0  0
   -4.3622    1.1359    0.2911 H   0  0  0  0  0  0  0  0  0  0  0  0
   -4.5394   -0.1616    1.4768 H   0  0  0  0  0  0  0  0  0  0  0  0
   -1.3036    1.7982   -1.7366 H   0  0  0  0  0  0  0  0  0  0  0  0
   -3.0090    1.5757   -1.3742 H   0  0  0  0  0  0  0  0  0  0  0  0
   -2.0770    2.8042   -0.4587 H   0  0  0  0  0  0  0  0  0  0  0  0
    1.1673   -1.4708   -0.3942 H   0  0  0  0  0  0  0  0  0  0  0  0
    3.2429    2.2901    0.1535 H   0  0  0  0  0  0  0  0  0  0  0  0
    3.2999   -2.6360   -0.4507 H   0  0  0  0  0  0  0  0  0  0  0  0
    5.3842    1.1040    0.0525 H   0  0  0  0  0  0  0  0  0  0  0  0
    6.5516   -1.0552    0.3428 H   0  0  0  0  0  0  0  0  0  0  0  0
    5.7003   -2.5829    0.1390 H   0  0  0  0  0  0  0  0  0  0  0  0
    6.1423   -1.6236   -1.2929 H   0  0  0  0  0  0  0  0  0  0  0  0
   -6.0247   -1.4872   -1.4557 H   0  0  0  0  0  0  0  0  0  0  0  0
  1 10  2  0  0  0  0
  2 18  1  0  0  0  0
  2 34  1  0  0  0  0
  3 18  2  0  0  0  0
  4  5  1  0  0  0  0
  4  6  1  0  0  0  0
  4 11  1  0  0  0  0
  5  7  2  0  0  0  0
  5  9  1  0  0  0  0
  6  8  2  0  0  0  0
  6 10  1  0  0  0  0
  7  8  1  0  0  0  0
  7 20  1  0  0  0  0
  8 21  1  0  0  0  0
  9 18  1  0  0  0  0
  9 22  1  0  0  0  0
  9 23  1  0  0  0  0
 10 12  1  0  0  0  0
 11 24  1  0  0  0  0
 11 25  1  0  0  0  0
 11 26  1  0  0  0  0
 12 13  2  0  0  0  0
 12 14  1  0  0  0  0
 13 16  1  0  0  0  0
 13 27  1  0  0  0  0
 14 17  2  0  0  0  0
 14 28  1  0  0  0  0
 15 16  2  0  0  0  0
 15 17  1  0  0  0  0
 15 19  1  0  0  0  0
 16 29  1  0  0  0  0
 17 30  1  0  0  0  0
 19 31  1  0  0  0  0
 19 32  1  0  0  0  0
 19 33  1  0  0  0  0
M  END
> <PUBCHEM_COMPOUND_CID>
5509

> <PUBCHEM_CONFORMER_RMSD>
0.6

> <PUBCHEM_CONFORMER_DIVERSEORDER>
1
36
17
34
31
24
7
30
29
28
16
20
38
33
21
32
6
4
40
41
23
11
22
37
2
8
3
27
5
14
9
25
12
35
19
15
39
18
10
26
13

> <PUBCHEM_MMFF94_PARTIAL_CHARGES>
26
1 -0.57
10 0.57
11 0.26
12 0.09
13 -0.15
14 -0.15
15 -0.14
16 -0.15
17 -0.15
18 0.66
19 0.14
2 -0.65
20 0.15
21 0.15
27 0.15
28 0.15
29 0.15
3 -0.57
30 0.15
34 0.5
4 0.05
5 -0.33
6 -0.24
7 -0.15
8 -0.15
9 0.24

> <PUBCHEM_EFFECTIVE_ROTOR_COUNT>
4

> <PUBCHEM_PHARMACOPHORE_FEATURES>
7
1 1 acceptor
1 2 acceptor
1 3 acceptor
1 4 cation
3 2 3 18 anion
5 4 5 6 7 8 rings
6 12 13 14 15 16 17 rings

> <PUBCHEM_HEAVY_ATOM_COUNT>
19

> <PUBCHEM_ATOM_DEF_STEREO_COUNT>
0

> <PUBCHEM_ATOM_UDEF_STEREO_COUNT>
0

> <PUBCHEM_BOND_DEF_STEREO_COUNT>
0

> <PUBCHEM_BOND_UDEF_STEREO_COUNT>
0

> <PUBCHEM_ISOTOPIC_ATOM_COUNT>
0

> <PUBCHEM_COMPONENT_COUNT>
1

> <PUBCHEM_CACTVS_TAUTO_COUNT>
1

> <PUBCHEM_CONFORMER_ID>
0000158500000001

> <PUBCHEM_MMFF94_ENERGY>
45.8523

> <PUBCHEM_FEATURE_SELFOVERLAP>
35.579

> <PUBCHEM_SHAPE_FINGERPRINT>
10354089 29 8718828699594639406
10366900 7 18260841375728091970
106641 1 12391502118757788239
11796584 16 17417815084574343175
12236239 1 17775288265550677986
12251169 10 12535624977128068635
12555020 224 18186522102813868851
12596602 18 16845573110947000426
12670543 26 17822283562013058751
12892183 10 15123236464391303398
12954195 1 18263073324219233773
13167823 11 18202846560488230079
13288520 33 18131070429006159191
13544653 18 18410582785824563192
13862211 1 18410012092620366914
14115302 16 17095816502329370986
14341114 176 12031791357754944122
14508225 48 18113054926205494252
14911166 2 17676486168280602081
15163728 17 14491018356467717343
15183329 4 18337943507881883045
15375358 24 18113623421377769576
15848700 24 18334295362196689900
15848702 151 18412547608913718741
15880784 105 17917996075002070378
16752209 62 17603860070548730472
17349148 13 18186801353355624960
17357779 13 18040147435617462309
18186145 218 16950567713481100777
18222031 100 18342462526294165718
19141452 34 18342462526051494617
19784866 240 18202568388752787879
200 152 18273497874911830985
20028762 73 18060698373594320958
20374829 77 18336264557061418970
20645477 70 18187933936052264632
20871999 31 17530970142113984356
21029758 11 18334015007800618993
21069387 34 18341339962886023531
21267235 1 18412835676470335766
21637258 2 17489013951403970591
22079108 93 16702008804298682482
221357 26 18187074066852545485
22646028 1 18202567280276614042
22713019 99 18187363250936654691
23402539 116 18260267412755888949
23559900 14 17822019743910879800
26918003 58 17131833140201039555
2748010 2 17461452600483010233
2838139 119 13190605175277276599
2871803 45 18186802465752258514
3286 77 17988923392076398776
439807 62 17985255516831019271
5283173 99 18114454548678235868
542803 24 11891334261759582138
559249 180 18201720613964507655
58807428 26 12535628258404520572
602551 16 14979665645944818148
69090 78 18409450297195243562
76465 3 18341891879200323670
9709674 26 18261399957298865960
9971528 1 18335982055693630160

> <PUBCHEM_SHAPE_MULTIPOLES>
368.42
11.2
1.8
1.09
1.11
0.51
0.23
-5.63
-2.79
0.57
-0.44
-1.01
-0.23
-0.02

> <PUBCHEM_SHAPE_SELFOVERLAP>
794.688

> <PUBCHEM_SHAPE_VOLUME>
205.5

> <PUBCHEM_COORDINATE_TYPE>
2
5
10

$$$$
